                                   MODFLOW 6
                U.S. GEOLOGICAL SURVEY MODULAR HYDROLOGIC MODEL
                          GROUNDWATER FLOW MODEL (GWF)
                            VERSION 6.1.0 12/12/2019

   MODFLOW 6 compiled Dec 12 2019 13:30:12 with IFORT compiler (ver. 19.0.5)

This software has been approved for release by the U.S. Geological 
Survey (USGS). Although the software has been subjected to rigorous 
review, the USGS reserves the right to update the software as needed 
pursuant to further analysis and review. No warranty, expressed or 
implied, is made by the USGS or the U.S. Government as to the 
functionality of the software and related material nor shall the 
fact of release constitute any such warranty. Furthermore, the 
software is released on condition that neither the USGS nor the U.S. 
Government shall be held liable for any damages resulting from its 
authorized or unauthorized use. Also refer to the USGS Water 
Resources Software User Rights Notice for complete use, copyright, 
and distribution information.


MODFLOW was compiled using uniform precision.
Precision of REAL variables: 15


 OPENED ex1.dis
 FILE TYPE:DIS6                   UNIT 1005   STATUS:OLD                 
 FORMAT:FORMATTED              ACCESS:SEQUENTIAL          
 ACTION:READ                


 OPENED ex1.ic
 FILE TYPE:IC6                    UNIT 1006   STATUS:OLD                 
 FORMAT:FORMATTED              ACCESS:SEQUENTIAL          
 ACTION:READ                


 OPENED ex1.chd
 FILE TYPE:CHD6                   UNIT 1007   STATUS:OLD                 
 FORMAT:FORMATTED              ACCESS:SEQUENTIAL          
 ACTION:READ                


 OPENED ex1.npf
 FILE TYPE:NPF6                   UNIT 1008   STATUS:OLD                 
 FORMAT:FORMATTED              ACCESS:SEQUENTIAL          
 ACTION:READ                


 OPENED ex1.wel
 FILE TYPE:WEL6                   UNIT 1009   STATUS:OLD                 
 FORMAT:FORMATTED              ACCESS:SEQUENTIAL          
 ACTION:READ                


 OPENED ex1.oc
 FILE TYPE:OC6                    UNIT 1010   STATUS:OLD                 
 FORMAT:FORMATTED              ACCESS:SEQUENTIAL          
 ACTION:READ                


 DIS -- STRUCTURED GRID DISCRETIZATION PACKAGE, VERSION 2 : 3/27/2014 - INPUT READ FROM UNIT 1005


 PROCESSING DISCRETIZATION OPTIONS
    MODEL LENGTH UNIT IS METERS
 END OF DISCRETIZATION OPTIONS
 PROCESSING DISCRETIZATION DIMENSIONS
    NLAY =       1
    NROW =      50
    NCOL =      50
 END OF DISCRETIZATION DIMENSIONS
 PROCESSING GRIDDATA

                     DELR =   20.00000    

                     DELC =   20.00000    

 TOP ELEVATION OF LAYER 1 =   0.000000    

   MODEL LAYER BOTTOM EL. =  -50.00000    
 END PROCESSING GRIDDATA

 NPF -- NODE PROPERTY FLOW PACKAGE, VERSION 1, 3/30/2015 INPUT READ FROM UNIT 1008


 PROCESSING NPF OPTIONS
    CELL-BY-CELL FLOW INFORMATION WILL BE SAVED TO BINARY FILE WHENEVER ICBCFL IS NOT ZERO.
    SPECIFIC DISCHARGE WILL BE CALCULATED AT CELL CENTERS AND WRITTEN TO DATA-SPDIS IN BUDGET FILE WHEN REQUESTED.
 END OF NPF OPTIONS

 WEL   -- WEL PACKAGE, VERSION 8, 2/22/2014 INPUT READ FROM UNIT 1009

 PROCESSING WEL OPTIONS
 END OF WEL OPTIONS

 PROCESSING WEL DIMENSIONS
    MAXBOUND =       1
 END OF WEL DIMENSIONS

 CHD   -- CHD PACKAGE, VERSION 8, 2/22/2014 INPUT READ FROM UNIT 1007

 PROCESSING CHD OPTIONS
 END OF CHD OPTIONS

 PROCESSING CHD DIMENSIONS
    MAXBOUND =     100
 END OF CHD DIMENSIONS

 IC -- INITIAL CONDITIONS PACKAGE, VERSION 8, 3/28/2015 INPUT READ FROM UNIT 1006
 PROCESSING GRIDDATA

     INITIAL HEAD =   1.000000    
 END PROCESSING GRIDDATA
 PROCESSING GRIDDATA

                ICELLTYPE = 1

                        K =   10.00000    

                      K33 =   10.00000    
 K22 not provided.  Assuming K22 = K.
 END PROCESSING GRIDDATA
    BINARY GRID INFORMATION WILL BE WRITTEN TO:
      UNIT NUMBER: 1012
      FILE NAME: C:\thomas\modflow\flopy\sim\ex1\ex1.dis.grb

 OPENED C:\thomas\modflow\flopy\sim\ex1\ex1.dis.grb
 FILE TYPE:DATA(BINARY)   UNIT 1012   STATUS:REPLACE             
 FORMAT:UNFORMATTED            ACCESS:STREAM              
 ACTION:READWRITE           

      THE LAST TIME STEP WILL BE PRINTED
      THE LAST TIME STEP WILL BE PRINTED
 PROCESSING OC OPTIONS
    BUDGET INFORMATION WILL BE WRITTEN TO:
      UNIT NUMBER: 1013
      FILE NAME: ex1.cbc

 OPENED ex1.cbc
 FILE TYPE:DATA(BINARY)   UNIT 1013   STATUS:REPLACE             
 FORMAT:UNFORMATTED            ACCESS:STREAM              
 ACTION:READWRITE           

    HEAD INFORMATION WILL BE WRITTEN TO:
      UNIT NUMBER: 1014
      FILE NAME: ex1.hds

 OPENED ex1.hds
 FILE TYPE:DATA(BINARY)   UNIT 1014   STATUS:REPLACE             
 FORMAT:UNFORMATTED            ACCESS:STREAM              
 ACTION:READWRITE           

 END OF OC OPTIONS

 BEGIN READING OUTPUT CONTROL FOR STRESS PERIOD 1
      ALL TIME STEPS WILL BE SAVED
      ALL TIME STEPS WILL BE SAVED
      THE LAST TIME STEP WILL BE PRINTED

 END READING OUTPUT CONTROL FOR STRESS PERIOD 1
 UBDSV1 SAVING     FLOW-JA-FACE ON UNIT   1013 AT TIME STEP      1, STRESS PERIOD      1
 UBDSV06 SAVING       DATA-SPDIS IN MODEL EX1              PACKAGE NPF             CONNECTED TO MODEL EX1              PACKAGE NPF              ON UNIT   1013 AT TIME STEP      1, STRESS PERIOD      1

 HEAD WILL BE SAVED ON UNIT 1014 AT END OF TIME STEP    1, STRESS PERIOD    1
 UBDSV1 SAVING     FLOW-JA-FACE ON UNIT   1013 AT TIME STEP      2, STRESS PERIOD      1
 UBDSV06 SAVING       DATA-SPDIS IN MODEL EX1              PACKAGE NPF             CONNECTED TO MODEL EX1              PACKAGE NPF              ON UNIT   1013 AT TIME STEP      2, STRESS PERIOD      1

 HEAD WILL BE SAVED ON UNIT 1014 AT END OF TIME STEP    2, STRESS PERIOD    1
 UBDSV1 SAVING     FLOW-JA-FACE ON UNIT   1013 AT TIME STEP      3, STRESS PERIOD      1
 UBDSV06 SAVING       DATA-SPDIS IN MODEL EX1              PACKAGE NPF             CONNECTED TO MODEL EX1              PACKAGE NPF              ON UNIT   1013 AT TIME STEP      3, STRESS PERIOD      1

 HEAD WILL BE SAVED ON UNIT 1014 AT END OF TIME STEP    3, STRESS PERIOD    1
 UBDSV1 SAVING     FLOW-JA-FACE ON UNIT   1013 AT TIME STEP      4, STRESS PERIOD      1
 UBDSV06 SAVING       DATA-SPDIS IN MODEL EX1              PACKAGE NPF             CONNECTED TO MODEL EX1              PACKAGE NPF              ON UNIT   1013 AT TIME STEP      4, STRESS PERIOD      1

 HEAD WILL BE SAVED ON UNIT 1014 AT END OF TIME STEP    4, STRESS PERIOD    1
 UBDSV1 SAVING     FLOW-JA-FACE ON UNIT   1013 AT TIME STEP      5, STRESS PERIOD      1
 UBDSV06 SAVING       DATA-SPDIS IN MODEL EX1              PACKAGE NPF             CONNECTED TO MODEL EX1              PACKAGE NPF              ON UNIT   1013 AT TIME STEP      5, STRESS PERIOD      1

 HEAD WILL BE SAVED ON UNIT 1014 AT END OF TIME STEP    5, STRESS PERIOD    1
 UBDSV1 SAVING     FLOW-JA-FACE ON UNIT   1013 AT TIME STEP      6, STRESS PERIOD      1
 UBDSV06 SAVING       DATA-SPDIS IN MODEL EX1              PACKAGE NPF             CONNECTED TO MODEL EX1              PACKAGE NPF              ON UNIT   1013 AT TIME STEP      6, STRESS PERIOD      1

 HEAD WILL BE SAVED ON UNIT 1014 AT END OF TIME STEP    6, STRESS PERIOD    1
 UBDSV1 SAVING     FLOW-JA-FACE ON UNIT   1013 AT TIME STEP      7, STRESS PERIOD      1
 UBDSV06 SAVING       DATA-SPDIS IN MODEL EX1              PACKAGE NPF             CONNECTED TO MODEL EX1              PACKAGE NPF              ON UNIT   1013 AT TIME STEP      7, STRESS PERIOD      1

 HEAD WILL BE SAVED ON UNIT 1014 AT END OF TIME STEP    7, STRESS PERIOD    1
 UBDSV1 SAVING     FLOW-JA-FACE ON UNIT   1013 AT TIME STEP      8, STRESS PERIOD      1
 UBDSV06 SAVING       DATA-SPDIS IN MODEL EX1              PACKAGE NPF             CONNECTED TO MODEL EX1              PACKAGE NPF              ON UNIT   1013 AT TIME STEP      8, STRESS PERIOD      1

 HEAD WILL BE SAVED ON UNIT 1014 AT END OF TIME STEP    8, STRESS PERIOD    1
 UBDSV1 SAVING     FLOW-JA-FACE ON UNIT   1013 AT TIME STEP      9, STRESS PERIOD      1
 UBDSV06 SAVING       DATA-SPDIS IN MODEL EX1              PACKAGE NPF             CONNECTED TO MODEL EX1              PACKAGE NPF              ON UNIT   1013 AT TIME STEP      9, STRESS PERIOD      1

 HEAD WILL BE SAVED ON UNIT 1014 AT END OF TIME STEP    9, STRESS PERIOD    1
 UBDSV1 SAVING     FLOW-JA-FACE ON UNIT   1013 AT TIME STEP     10, STRESS PERIOD      1
 UBDSV06 SAVING       DATA-SPDIS IN MODEL EX1              PACKAGE NPF             CONNECTED TO MODEL EX1              PACKAGE NPF              ON UNIT   1013 AT TIME STEP     10, STRESS PERIOD      1
1
  HEAD IN LAYER   1 AT END OF TIME STEP  10 IN STRESS PERIOD    1
  ---------------------------------------------------------------------------

            1           2           3           4           5           6           7           8           9          10
           11          12          13          14          15          16          17          18          19          20
           21          22          23          24          25          26          27          28          29          30
           31          32          33          34          35          36          37          38          39          40
           41          42          43          44          45          46          47          48          49          50
 ........................................................................................................................
   1    10.00       9.799       9.598       9.398       9.197       8.997       8.797       8.597       8.398       8.199    
        8.000       7.802       7.605       7.409       7.213       7.018       6.824       6.631       6.439       6.249    
        6.059       5.870       5.683       5.497       5.313       5.129       4.947       4.766       4.586       4.408    
        4.231       4.055       3.879       3.705       3.532       3.360       3.188       3.017       2.847       2.677    
        2.508       2.339       2.171       2.003       1.836       1.668       1.501       1.334       1.167       1.000    
   2    10.00       9.799       9.598       9.397       9.197       8.997       8.796       8.597       8.397       8.198    
        8.000       7.802       7.605       7.408       7.212       7.017       6.823       6.630       6.438       6.247    
        6.058       5.869       5.682       5.496       5.311       5.128       4.946       4.765       4.585       4.407    
        4.230       4.054       3.878       3.704       3.531       3.359       3.187       3.017       2.846       2.677    
        2.508       2.339       2.171       2.003       1.835       1.668       1.501       1.334       1.167       1.000    
   3    10.00       9.799       9.598       9.397       9.196       8.996       8.796       8.596       8.396       8.197    
        7.999       7.801       7.603       7.406       7.211       7.015       6.821       6.628       6.436       6.245    
        6.055       5.867       5.679       5.493       5.309       5.125       4.943       4.762       4.583       4.405    
        4.227       4.051       3.876       3.703       3.530       3.357       3.186       3.015       2.845       2.676    
        2.507       2.338       2.170       2.002       1.835       1.668       1.501       1.334       1.167       1.000    
   4    10.00       9.799       9.598       9.397       9.196       8.995       8.795       8.595       8.395       8.196    
        7.997       7.799       7.601       7.404       7.208       7.013       6.818       6.625       6.433       6.242    
        6.052       5.863       5.676       5.489       5.305       5.121       4.939       4.759       4.579       4.401    
        4.224       4.048       3.874       3.700       3.527       3.355       3.184       3.013       2.843       2.674    
        2.505       2.337       2.169       2.002       1.834       1.667       1.500       1.333       1.167       1.000    
   5    10.00       9.799       9.597       9.396       9.195       8.994       8.794       8.593       8.393       8.194    
        7.995       7.796       7.598       7.401       7.205       7.009       6.814       6.621       6.428       6.237    
        6.047       5.858       5.670       5.484       5.299       5.116       4.934       4.754       4.574       4.396    
        4.220       4.044       3.870       3.696       3.524       3.352       3.181       3.011       2.841       2.672    
        2.504       2.336       2.168       2.000       1.833       1.666       1.500       1.333       1.166       1.000    
   6    10.00       9.798       9.597       9.395       9.194       8.993       8.792       8.591       8.391       8.191    
        7.992       7.793       7.595       7.397       7.200       7.005       6.810       6.616       6.423       6.231    
        6.041       5.852       5.664       5.478       5.293       5.109       4.928       4.747       4.568       4.390    
        4.214       4.039       3.865       3.691       3.519       3.348       3.177       3.008       2.838       2.670    
        2.501       2.334       2.166       1.999       1.832       1.665       1.499       1.333       1.166       1.000    
   7    10.00       9.798       9.596       9.394       9.193       8.991       8.790       8.589       8.389       8.188    
        7.989       7.789       7.591       7.393       7.195       6.999       6.804       6.609       6.416       6.224    
        6.033       5.844       5.656       5.470       5.285       5.101       4.920       4.739       4.561       4.383    
        4.207       4.032       3.859       3.686       3.514       3.343       3.173       3.004       2.835       2.667    
        2.499       2.331       2.164       1.997       1.831       1.664       1.498       1.332       1.166       1.000    
   8    10.00       9.798       9.596       9.393       9.192       8.990       8.788       8.587       8.386       8.185    
        7.985       7.785       7.586       7.387       7.189       6.993       6.797       6.602       6.408       6.215    
        6.024       5.835       5.646       5.460       5.275       5.092       4.910       4.730       4.552       4.375    
        4.199       4.025       3.851       3.679       3.508       3.338       3.168       2.999       2.831       2.663    
        2.496       2.329       2.162       1.995       1.829       1.663       1.497       1.331       1.166       1.000    
   9    10.00       9.797       9.595       9.392       9.190       8.988       8.786       8.584       8.382       8.181    
        7.980       7.780       7.580       7.381       7.183       6.985       6.788       6.593       6.399       6.205    
        6.014       5.824       5.635       5.449       5.264       5.080       4.899       4.719       4.541       4.365    
        4.190       4.016       3.843       3.672       3.501       3.332       3.163       2.994       2.827       2.659    
        2.492       2.326       2.159       1.993       1.828       1.662       1.496       1.331       1.165       1.000    
  10    10.00       9.797       9.594       9.391       9.188       8.986       8.783       8.581       8.379       8.177    
        7.976       7.775       7.574       7.374       7.175       6.977       6.779       6.583       6.388       6.194    
        6.002       5.811       5.623       5.436       5.251       5.067       4.886       4.707       4.529       4.353    
        4.179       4.006       3.834       3.663       3.494       3.325       3.156       2.989       2.822       2.655    
        2.488       2.322       2.157       1.991       1.826       1.660       1.495       1.330       1.165       1.000    
  11    10.00       9.797       9.593       9.390       9.187       8.983       8.780       8.577       8.375       8.172    
        7.970       7.769       7.567       7.367       7.167       6.967       6.769       6.572       6.376       6.181    
        5.988       5.797       5.608       5.421       5.236       5.053       4.872       4.693       4.516       4.341    
        4.167       3.995       3.824       3.654       3.485       3.317       3.150       2.983       2.816       2.650    
        2.484       2.319       2.154       1.989       1.824       1.659       1.494       1.329       1.165       1.000    
  12    10.00       9.796       9.592       9.388       9.185       8.981       8.777       8.574       8.371       8.168    
        7.965       7.762       7.560       7.359       7.158       6.957       6.758       6.560       6.363       6.167    
        5.973       5.781       5.591       5.404       5.218       5.035       4.855       4.677       4.500       4.326    
        4.154       3.982       3.813       3.644       3.476       3.309       3.142       2.976       2.810       2.645    
        2.480       2.315       2.151       1.986       1.821       1.657       1.493       1.328       1.164       1.000    
  13    10.00       9.796       9.591       9.387       9.183       8.978       8.774       8.570       8.366       8.162    
        7.959       7.755       7.552       7.350       7.148       6.946       6.746       6.546       6.348       6.151    
        5.956       5.763       5.572       5.384       5.199       5.016       4.836       4.658       4.483       4.310    
        4.139       3.969       3.800       3.633       3.466       3.300       3.134       2.969       2.804       2.640    
        2.476       2.311       2.147       1.983       1.819       1.655       1.492       1.328       1.164       1.000    
  14    10.00       9.795       9.590       9.386       9.181       8.976       8.771       8.566       8.362       8.157    
        7.953       7.748       7.544       7.340       7.137       6.934       6.732       6.531       6.331       6.133    
        5.937       5.742       5.551       5.362       5.176       4.994       4.814       4.638       4.464       4.292    
        4.122       3.954       3.787       3.621       3.455       3.290       3.126       2.962       2.798       2.634    
        2.471       2.307       2.144       1.980       1.817       1.654       1.490       1.327       1.163       1.000    
  15    10.00       9.795       9.589       9.384       9.179       8.973       8.768       8.563       8.357       8.152    
        7.946       7.741       7.536       7.331       7.126       6.922       6.718       6.515       6.313       6.113    
        5.915       5.719       5.526       5.337       5.151       4.969       4.790       4.615       4.442       4.272    
        4.104       3.938       3.772       3.608       3.444       3.281       3.117       2.955       2.792       2.629    
        2.466       2.303       2.140       1.978       1.815       1.652       1.489       1.326       1.163       1.000    
  16    10.00       9.794       9.588       9.383       9.177       8.971       8.765       8.559       8.353       8.146    
        7.940       7.734       7.527       7.321       7.114       6.908       6.703       6.498       6.294       6.091    
        5.891       5.693       5.499       5.308       5.122       4.940       4.762       4.589       4.418       4.251    
        4.085       3.920       3.757       3.595       3.432       3.270       3.109       2.947       2.785       2.623    
        2.461       2.299       2.137       1.975       1.813       1.650       1.488       1.325       1.163       1.000    
  17    10.00       9.794       9.588       9.381       9.175       8.968       8.762       8.555       8.348       8.141    
        7.934       7.726       7.518       7.310       7.103       6.895       6.687       6.479       6.273       6.068    
        5.865       5.664       5.467       5.275       5.088       4.907       4.731       4.559       4.392       4.227    
        4.064       3.902       3.741       3.581       3.420       3.260       3.100       2.939       2.779       2.618    
        2.457       2.295       2.134       1.972       1.810       1.648       1.486       1.324       1.162       1.000    
  18    10.00       9.793       9.587       9.380       9.173       8.966       8.759       8.551       8.344       8.136    
        7.927       7.719       7.510       7.300       7.091       6.881       6.670       6.460       6.251       6.042    
        5.835       5.631       5.431       5.237       5.049       4.869       4.695       4.527       4.362       4.201    
        4.041       3.883       3.725       3.567       3.409       3.250       3.091       2.932       2.772       2.613    
        2.452       2.292       2.131       1.970       1.808       1.647       1.485       1.324       1.162       1.000    
  19    10.00       9.793       9.586       9.379       9.171       8.964       8.756       8.548       8.340       8.131    
        7.922       7.712       7.502       7.291       7.079       6.867       6.654       6.441       6.227       6.014    
        5.803       5.594       5.390       5.192       5.003       4.824       4.653       4.489       4.330       4.173    
        4.018       3.863       3.708       3.553       3.397       3.240       3.083       2.925       2.767       2.608    
        2.448       2.288       2.128       1.967       1.806       1.645       1.484       1.323       1.161       1.000    
  20    10.00       9.793       9.585       9.378       9.170       8.962       8.754       8.545       8.336       8.127    
        7.916       7.706       7.494       7.282       7.068       6.854       6.638       6.421       6.204       5.986    
        5.768       5.552       5.341       5.138       4.947       4.770       4.605       4.448       4.295       4.144    
        3.994       3.844       3.692       3.540       3.386       3.231       3.075       2.919       2.761       2.603    
        2.444       2.285       2.125       1.965       1.805       1.644       1.483       1.322       1.161       1.000    
  21    10.00       9.792       9.585       9.377       9.169       8.960       8.752       8.543       8.333       8.123    
        7.912       7.700       7.487       7.274       7.058       6.842       6.623       6.403       6.180       5.956    
        5.731       5.506       5.285       5.073       4.878       4.705       4.548       4.401       4.258       4.115    
        3.971       3.825       3.677       3.528       3.376       3.223       3.069       2.913       2.757       2.599    
        2.441       2.282       2.123       1.963       1.803       1.643       1.482       1.322       1.161       1.000    
  22    10.00       9.792       9.584       9.376       9.168       8.959       8.750       8.540       8.330       8.120    
        7.908       7.696       7.482       7.267       7.050       6.831       6.610       6.386       6.159       5.928    
        5.693       5.456       5.219       4.991       4.786       4.622       4.483       4.351       4.221       4.087    
        3.950       3.809       3.664       3.517       3.368       3.216       3.063       2.909       2.753       2.596    
        2.439       2.280       2.121       1.962       1.802       1.642       1.482       1.321       1.161       1.000    
  23    10.00       9.792       9.584       9.375       9.167       8.958       8.749       8.539       8.329       8.118    
        7.905       7.692       7.478       7.262       7.044       6.823       6.600       6.373       6.141       5.904    
        5.659       5.406       5.145       4.884       4.654       4.516       4.408       4.301       4.186       4.062    
        3.932       3.795       3.654       3.509       3.362       3.211       3.059       2.905       2.750       2.594    
        2.437       2.279       2.120       1.961       1.801       1.642       1.481       1.321       1.161       1.000    
  24    10.00       9.792       9.584       9.375       9.166       8.957       8.748       8.538       8.328       8.116    
        7.904       7.690       7.475       7.259       7.040       6.818       6.594       6.364       6.129       5.886    
        5.633       5.363       5.070       4.749       4.428       4.381       4.334       4.258       4.160       4.045    
        3.920       3.787       3.648       3.504       3.358       3.208       3.057       2.903       2.748       2.593    
        2.436       2.278       2.119       1.960       1.801       1.641       1.481       1.321       1.160       1.000    
  25    10.00       9.792       9.583       9.375       9.166       8.957       8.748       8.538       8.327       8.116    
        7.903       7.690       7.475       7.258       7.039       6.817       6.591       6.361       6.125       5.880    
        5.622       5.343       5.024       4.613       3.928       4.244       4.288       4.238       4.149       4.039    
        3.916       3.784       3.646       3.503       3.356       3.207       3.056       2.903       2.748       2.592    
        2.435       2.278       2.119       1.960       1.801       1.641       1.481       1.321       1.160       1.000    
  26    10.00       9.792       9.584       9.375       9.167       8.958       8.748       8.538       8.328       8.116    
        7.904       7.691       7.476       7.259       7.040       6.819       6.594       6.365       6.130       5.887    
        5.633       5.363       5.071       4.749       4.428       4.381       4.334       4.259       4.160       4.046    
        3.920       3.787       3.648       3.505       3.358       3.209       3.057       2.904       2.749       2.593    
        2.436       2.278       2.120       1.961       1.801       1.641       1.481       1.321       1.160       1.000    
  27    10.00       9.792       9.584       9.376       9.167       8.958       8.749       8.539       8.329       8.118    
        7.906       7.693       7.479       7.263       7.045       6.824       6.601       6.374       6.142       5.904    
        5.660       5.407       5.146       4.885       4.655       4.517       4.409       4.302       4.187       4.063    
        3.933       3.796       3.655       3.510       3.362       3.212       3.060       2.906       2.751       2.594    
        2.437       2.279       2.120       1.961       1.802       1.642       1.482       1.321       1.161       1.000    
  28    10.00       9.792       9.584       9.376       9.168       8.959       8.751       8.541       8.331       8.121    
        7.909       7.697       7.483       7.268       7.051       6.833       6.611       6.387       6.160       5.929    
        5.695       5.457       5.220       4.992       4.788       4.624       4.484       4.353       4.222       4.088    
        3.951       3.810       3.666       3.518       3.369       3.217       3.064       2.910       2.754       2.597    
        2.439       2.281       2.122       1.963       1.803       1.642       1.482       1.321       1.161       1.000    
  29    10.00       9.792       9.585       9.377       9.169       8.961       8.752       8.543       8.334       8.124    
        7.913       7.701       7.489       7.275       7.060       6.843       6.625       6.404       6.182       5.958    
        5.733       5.508       5.287       5.075       4.880       4.707       4.550       4.403       4.260       4.117    
        3.973       3.827       3.679       3.529       3.378       3.225       3.070       2.914       2.758       2.600    
        2.442       2.283       2.124       1.964       1.804       1.643       1.483       1.322       1.161       1.000    
  30    10.00       9.793       9.585       9.378       9.170       8.963       8.755       8.546       8.337       8.128    
        7.918       7.707       7.496       7.283       7.070       6.856       6.640       6.423       6.206       5.988    
        5.770       5.555       5.344       5.141       4.950       4.773       4.607       4.450       4.297       4.147    
        3.997       3.846       3.694       3.542       3.388       3.233       3.077       2.920       2.763       2.604    
        2.446       2.286       2.126       1.966       1.805       1.645       1.484       1.323       1.161       1.000    
  31    10.00       9.793       9.586       9.379       9.172       8.965       8.757       8.549       8.341       8.133    
        7.923       7.714       7.504       7.293       7.081       6.869       6.656       6.443       6.230       6.017    
        5.806       5.597       5.392       5.195       5.006       4.827       4.656       4.492       4.333       4.176    
        4.021       3.866       3.711       3.555       3.399       3.243       3.085       2.927       2.768       2.609    
        2.450       2.289       2.129       1.968       1.807       1.646       1.485       1.323       1.162       1.000    
  32    10.00       9.794       9.587       9.381       9.174       8.967       8.760       8.553       8.345       8.138    
        7.930       7.721       7.512       7.303       7.093       6.883       6.673       6.463       6.254       6.045    
        5.838       5.634       5.435       5.240       5.053       4.872       4.698       4.530       4.365       4.204    
        4.044       3.886       3.728       3.570       3.411       3.253       3.094       2.934       2.775       2.614    
        2.454       2.293       2.132       1.971       1.809       1.648       1.486       1.324       1.162       1.000    
  33    10.00       9.794       9.588       9.382       9.176       8.970       8.763       8.557       8.350       8.143    
        7.936       7.729       7.521       7.313       7.106       6.898       6.690       6.483       6.276       6.071    
        5.868       5.668       5.471       5.279       5.092       4.911       4.735       4.563       4.395       4.230    
        4.067       3.906       3.745       3.584       3.424       3.263       3.103       2.942       2.781       2.620    
        2.459       2.297       2.135       1.974       1.812       1.649       1.487       1.325       1.162       1.000    
  34    10.00       9.795       9.589       9.383       9.178       8.972       8.767       8.561       8.355       8.149    
        7.943       7.736       7.530       7.324       7.118       6.912       6.706       6.502       6.298       6.096    
        5.895       5.698       5.503       5.313       5.126       4.944       4.767       4.593       4.423       4.255    
        4.089       3.924       3.761       3.598       3.436       3.274       3.112       2.950       2.788       2.626    
        2.464       2.301       2.139       1.976       1.814       1.651       1.488       1.326       1.163       1.000    
  35    10.00       9.795       9.590       9.385       9.180       8.975       8.770       8.565       8.360       8.154    
        7.949       7.744       7.539       7.334       7.130       6.926       6.722       6.519       6.318       6.118    
        5.920       5.724       5.531       5.342       5.156       4.974       4.795       4.620       4.447       4.277    
        4.109       3.942       3.777       3.612       3.448       3.284       3.121       2.958       2.795       2.632    
        2.469       2.306       2.143       1.979       1.816       1.653       1.490       1.327       1.163       1.000    
  36    10.00       9.796       9.591       9.387       9.182       8.978       8.773       8.569       8.365       8.160    
        7.956       7.752       7.548       7.345       7.141       6.939       6.737       6.536       6.336       6.138    
        5.942       5.748       5.556       5.368       5.182       4.999       4.820       4.643       4.469       4.297    
        4.127       3.959       3.792       3.625       3.460       3.295       3.130       2.966       2.802       2.638    
        2.474       2.310       2.146       1.982       1.819       1.655       1.491       1.327       1.164       1.000    
  37    10.00       9.796       9.592       9.388       9.184       8.980       8.777       8.573       8.369       8.166    
        7.963       7.759       7.557       7.354       7.152       6.951       6.751       6.551       6.353       6.157    
        5.962       5.769       5.578       5.390       5.205       5.022       4.842       4.664       4.489       4.316    
        4.144       3.974       3.805       3.638       3.471       3.305       3.139       2.973       2.808       2.643    
        2.479       2.314       2.150       1.985       1.821       1.657       1.493       1.328       1.164       1.000    
  38    10.00       9.797       9.593       9.390       9.186       8.983       8.780       8.577       8.374       8.171    
        7.969       7.767       7.565       7.364       7.163       6.963       6.764       6.566       6.369       6.173    
        5.979       5.788       5.598       5.410       5.225       5.042       4.861       4.683       4.507       4.332    
        4.160       3.988       3.818       3.649       3.481       3.314       3.147       2.981       2.815       2.649    
        2.484       2.318       2.153       1.988       1.823       1.659       1.494       1.329       1.165       1.000    
  39    10.00       9.797       9.594       9.391       9.188       8.986       8.783       8.581       8.378       8.176    
        7.975       7.773       7.573       7.372       7.172       6.974       6.775       6.578       6.383       6.188    
        5.995       5.804       5.615       5.428       5.243       5.060       4.879       4.700       4.523       4.347    
        4.174       4.001       3.830       3.660       3.491       3.323       3.155       2.988       2.821       2.654    
        2.488       2.322       2.157       1.991       1.826       1.661       1.495       1.330       1.165       1.000    
  40    10.00       9.798       9.595       9.393       9.190       8.988       8.786       8.584       8.383       8.181    
        7.980       7.780       7.580       7.380       7.181       6.983       6.786       6.590       6.395       6.202    
        6.010       5.819       5.630       5.443       5.258       5.075       4.894       4.715       4.537       4.361    
        4.186       4.013       3.841       3.670       3.500       3.331       3.162       2.994       2.827       2.659    
        2.493       2.326       2.160       1.994       1.828       1.662       1.497       1.331       1.166       1.000    
  41    10.00       9.798       9.596       9.394       9.192       8.991       8.789       8.588       8.387       8.186    
        7.986       7.786       7.586       7.388       7.189       6.992       6.796       6.601       6.406       6.214    
        6.022       5.832       5.644       5.457       5.272       5.089       4.908       4.728       4.550       4.373    
        4.198       4.024       3.851       3.679       3.508       3.338       3.169       3.000       2.832       2.664    
        2.497       2.330       2.163       1.996       1.830       1.664       1.498       1.332       1.166       1.000    
  42    10.00       9.798       9.597       9.395       9.194       8.993       8.792       8.591       8.390       8.190    
        7.990       7.791       7.592       7.394       7.197       7.000       6.805       6.610       6.416       6.224    
        6.033       5.844       5.656       5.469       5.284       5.101       4.919       4.739       4.561       4.384    
        4.208       4.033       3.860       3.687       3.516       3.345       3.175       3.006       2.837       2.668    
        2.501       2.333       2.166       1.999       1.832       1.665       1.499       1.333       1.166       1.000    
  43    10.00       9.799       9.598       9.396       9.195       8.995       8.794       8.594       8.394       8.194    
        7.995       7.796       7.598       7.400       7.203       7.007       6.812       6.618       6.425       6.233    
        6.043       5.854       5.666       5.480       5.295       5.111       4.930       4.749       4.570       4.393    
        4.216       4.041       3.867       3.694       3.522       3.351       3.180       3.010       2.841       2.672    
        2.504       2.336       2.168       2.001       1.834       1.667       1.500       1.333       1.167       1.000    
  44    10.00       9.799       9.598       9.397       9.197       8.996       8.796       8.596       8.396       8.197    
        7.998       7.800       7.602       7.405       7.209       7.013       6.819       6.625       6.433       6.241    
        6.051       5.862       5.675       5.488       5.304       5.120       4.938       4.758       4.579       4.401    
        4.224       4.048       3.874       3.701       3.528       3.356       3.185       3.015       2.845       2.676    
        2.507       2.339       2.171       2.003       1.835       1.668       1.501       1.334       1.167       1.000    
  45    10.00       9.799       9.599       9.398       9.198       8.998       8.798       8.598       8.399       8.200    
        8.002       7.804       7.606       7.410       7.214       7.019       6.824       6.631       6.439       6.248    
        6.058       5.869       5.682       5.496       5.311       5.128       4.946       4.765       4.586       4.407    
        4.230       4.055       3.880       3.706       3.533       3.361       3.189       3.019       2.848       2.679    
        2.510       2.341       2.173       2.005       1.837       1.669       1.502       1.334       1.167       1.000    
  46    10.00       9.800       9.599       9.399       9.199       8.999       8.799       8.600       8.401       8.203    
        8.004       7.807       7.610       7.413       7.218       7.023       6.829       6.636       6.444       6.253    
        6.064       5.875       5.688       5.502       5.317       5.134       4.952       4.771       4.591       4.413    
        4.236       4.060       3.884       3.710       3.537       3.364       3.193       3.022       2.851       2.681    
        2.512       2.343       2.174       2.006       1.838       1.670       1.502       1.335       1.167       1.000    
  47    10.00       9.800       9.600       9.400       9.200       9.000       8.801       8.602       8.403       8.204    
        8.007       7.809       7.612       7.416       7.221       7.027       6.833       6.640       6.449       6.258    
        6.068       5.880       5.693       5.507       5.322       5.139       4.957       4.776       4.596       4.417    
        4.240       4.064       3.888       3.714       3.540       3.367       3.195       3.024       2.853       2.683    
        2.514       2.344       2.176       2.007       1.839       1.671       1.503       1.335       1.168       1.000    
  48    10.00       9.800       9.600       9.400       9.200       9.001       8.802       8.603       8.404       8.206    
        8.008       7.811       7.614       7.419       7.223       7.029       6.836       6.643       6.452       6.261    
        6.072       5.883       5.696       5.511       5.326       5.142       4.960       4.779       4.599       4.421    
        4.243       4.067       3.891       3.716       3.543       3.370       3.198       3.026       2.855       2.685    
        2.515       2.346       2.177       2.008       1.840       1.671       1.503       1.335       1.168       1.000    
  49    10.00       9.800       9.600       9.400       9.201       9.001       8.802       8.603       8.405       8.207    
        8.009       7.812       7.616       7.420       7.225       7.031       6.838       6.645       6.454       6.263    
        6.074       5.886       5.699       5.513       5.328       5.145       4.963       4.782       4.602       4.423    
        4.245       4.069       3.893       3.718       3.544       3.371       3.199       3.027       2.856       2.686    
        2.516       2.346       2.177       2.008       1.840       1.672       1.504       1.336       1.168       1.000    
  50    10.00       9.800       9.600       9.401       9.201       9.002       8.803       8.604       8.405       8.207    
        8.010       7.813       7.617       7.421       7.226       7.032       6.838       6.646       6.455       6.264    
        6.075       5.887       5.700       5.514       5.329       5.146       4.964       4.783       4.603       4.424    
        4.246       4.070       3.894       3.719       3.545       3.372       3.200       3.028       2.857       2.686    
        2.516       2.347       2.178       2.009       1.840       1.672       1.504       1.336       1.168       1.000    

 HEAD WILL BE SAVED ON UNIT 1014 AT END OF TIME STEP   10, STRESS PERIOD    1


  VOLUME BUDGET FOR ENTIRE MODEL AT END OF TIME STEP   10, STRESS PERIOD   1
  ---------------------------------------------------------------------------------------------------

     CUMULATIVE VOLUME      L**3       RATES FOR THIS TIME STEP      L**3/T          PACKAGE NAME    
     ------------------                 ------------------------                     ----------------

           IN:                                      IN:
           ---                                      ---
                 WEL =           0.0000                   WEL =           0.0000     WEL_0           
                 CHD =     5102061.6723                   CHD =        5102.0546     CHD_0           

            TOTAL IN =     5102061.6723              TOTAL IN =        5102.0546

          OUT:                                     OUT:
          ----                                     ----
                 WEL =     1000000.0000                   WEL =        1000.0000     WEL_0           
                 CHD =     4102086.3924                   CHD =        4102.0716     CHD_0           

           TOTAL OUT =     5102086.3924             TOTAL OUT =        5102.0716

            IN - OUT =         -24.7201              IN - OUT =      -1.7001E-02

 PERCENT DISCREPANCY =          -0.00     PERCENT DISCREPANCY =          -0.00




         TIME SUMMARY AT END OF TIME STEP   10 IN STRESS PERIOD    1
                    SECONDS     MINUTES      HOURS       DAYS        YEARS
                    -----------------------------------------------------------
   TIME STEP LENGTH 8.64000E+06 1.44000E+05  2400.0      100.00     0.27379    
 STRESS PERIOD TIME 8.64000E+07 1.44000E+06  24000.      1000.0      2.7379    
         TOTAL TIME 8.64000E+07 1.44000E+06  24000.      1000.0      2.7379    
